[root]
type=Root
children=system
eventq_index=0
full_system=true
sim_quantum=0
time_sync_enable=false
time_sync_period=100000000000
time_sync_spin_threshold=100000000

[system]
type=ArmSystem
children=RootComplex bridge clk_domain cpu cpu_clk_domain cpu_voltage_domain dvfs_handler iobus iocache mem_ctrls membus pci_ide pcie1 pcie2 pcie3 pcie4 pcie5 pcie6 realview release switch terminal vncserver voltage_domain workload
auto_reset_addr=true
auto_unlink_shared_backstore=false
cache_line_size=64
eventq_index=0
exit_on_work_items=false
gic_cpu_addr=738205696
have_large_asid_64=false
highest_el_is_64=true
init_param=0
m5ops_base=268500992
mem_mode=timing
mem_ranges=2147483648:2684354560
memories=system.mem_ctrls.dram system.realview.bootmem system.realview.flash0 system.realview.flash1 system.realview.non_trusted_sram system.realview.trusted_dram system.realview.trusted_sram system.realview.vram
mmap_using_noreserve=false
multi_proc=true
multi_thread=false
num_work_ids=16
phys_addr_range_64=40
readfile=
redirect_paths=
release=system.release
reset_addr=0
semihosting=Null
shadow_rom_ranges=
shared_backstore=
sme_vl=1
sve_vl=1
symbolfile=
thermal_components=
thermal_model=Null
work_begin_ckpt_count=0
work_begin_cpu_id_exit=-1
work_begin_exit_count=0
work_cpus_ckpt_count=0
work_end_ckpt_count=0
work_end_exit_count=0
work_item_id=-1
workload=system.workload
system_port=system.membus.cpu_side_ports[1]

[system.RootComplex]
type=PciBridge2
BAR0Size=0
BAR1Size=0
BIST=0
Bar0=0
Bar1=0
BridgeControl=0
CacheLineSize=0
CapabilityPointer=208
ClassCode=6
Command=1031
DeviceId1=40080
DeviceId2=40082
DeviceId3=40084
DeviceId_upstream=33330
ExpansionROMBaseAddress=0
HeaderType=1
IOBase=1
IOBaseUpper=12032
IOLimit=1
IOLimitUpper=12032
InterruptLine=32
InterruptPin=1
LatencyTimer=0
MemoryBase=0
MemoryLimit=0
PXCAPBaseOffset=208
PXCAPCapId=16
PXCAPCapabilities=65
PXCAPCapabilities_downstream=97
PXCAPCapabilities_upstream=81
PXCAPDevCap2=0
PXCAPDevCapabilities=577
PXCAPDevCtrl=4128
PXCAPDevCtrl2=0
PXCAPDevStatus=0
PXCAPLinkCap=16814097
PXCAPLinkCtrl=8
PXCAPLinkStatus=17
PXCAPNextCapability=0
PXCAPRootControl=0
PXCAPRootStatus=0
PrefetchableMemoryBase=0
PrefetchableMemoryBaseUpper=0
PrefetchableMemoryLimit=0
PrefetchableMemoryLimitUpper=0
PrimaryBusNumber=0
ProgIF=0
Revision=0
SecondaryBusNumber=0
SecondaryLatencyTimer=0
SecondaryStatus=0
Status=16
SubClassCode=4
SubordinateBusNumber=0
VendorId=32902
config_latency=20000
delay=0
eventq_index=0
host=system.realview.pci_host
is_switch=0
is_transmit=0
pci_bus=0
pci_dev1=4
pci_dev2=5
pci_dev3=6
pci_func1=0
pci_func2=0
pci_func3=0
pci_upstream_dev=0
pci_upstream_func=0
rc_id=0
req_size=16
resp_size=16
request1=system.pcie1.upstreamResponse
request2=system.pcie2.upstreamResponse
request3=system.pcie3.upstreamResponse
request_dma=system.membus.cpu_side_ports[0]
response=system.membus.mem_side_ports[1]
response_dma1=system.pcie1.upstreamRequest
response_dma2=system.pcie2.upstreamRequest
response_dma3=system.pcie3.upstreamRequest

[system.bridge]
type=Bridge
children=power_state
clk_domain=system.clk_domain
delay=50000
eventq_index=0
power_model=
power_state=system.bridge.power_state
ranges=201326592:536870912 788529152:2147483648
req_size=16
resp_size=16
cpu_side_port=system.membus.mem_side_ports[0]
mem_side_port=system.iobus.cpu_side_ports[0]

[system.bridge.power_state]
type=PowerState
clk_gate_bins=20
clk_gate_max=1000000000000
clk_gate_min=1000
default_state=UNDEFINED
eventq_index=0
leaders=
possible_states=

[system.clk_domain]
type=SrcClockDomain
clock=1000
domain_id=-1
eventq_index=0
init_perf_level=0
voltage_domain=system.voltage_domain

[system.cpu]
type=BaseTimingSimpleCPU
children=dcache decoder icache interrupts isa mmu power_state tracer
branchPred=Null
checker=Null
clk_domain=system.cpu_clk_domain
cpu_id=0
decoder=system.cpu.decoder
do_checkpoint_insts=true
do_statistics_insts=true
eventq_index=0
function_trace=false
function_trace_start=0
interrupts=system.cpu.interrupts
isa=system.cpu.isa
max_insts_all_threads=0
max_insts_any_thread=0
mmu=system.cpu.mmu
numThreads=1
power_gating_on_idle=false
power_model=
power_state=system.cpu.power_state
progress_interval=0
pwr_gating_latency=300
simpoint_start_insts=
socket_id=0
switched_out=false
syscallRetryLatency=10000
system=system
tracer=system.cpu.tracer
workload=
dcache_port=system.cpu.dcache.cpu_side
icache_port=system.cpu.icache.cpu_side

[system.cpu.dcache]
type=Cache
children=power_state replacement_policy tags
addr_ranges=0:18446744073709551615
assoc=2
clk_domain=system.cpu_clk_domain
clusivity=mostly_incl
compressor=Null
data_latency=2
demand_mshr_reserve=1
eventq_index=0
is_read_only=false
max_miss_count=0
move_contractions=true
mshrs=4
power_model=
power_state=system.cpu.dcache.power_state
prefetch_on_access=false
prefetch_on_pf_hit=false
prefetcher=Null
replace_expansions=true
replacement_policy=system.cpu.dcache.replacement_policy
response_latency=2
sequential_access=false
size=65536
system=system
tag_latency=2
tags=system.cpu.dcache.tags
tgts_per_mshr=20
warmup_percentage=0
write_allocator=Null
write_buffers=8
writeback_clean=false
cpu_side=system.cpu.dcache_port
mem_side=system.membus.cpu_side_ports[4]

[system.cpu.dcache.power_state]
type=PowerState
clk_gate_bins=20
clk_gate_max=1000000000000
clk_gate_min=1000
default_state=UNDEFINED
eventq_index=0
leaders=
possible_states=

[system.cpu.dcache.replacement_policy]
type=LRURP
eventq_index=0

[system.cpu.dcache.tags]
type=BaseSetAssoc
children=indexing_policy power_state
assoc=2
block_size=64
clk_domain=system.cpu_clk_domain
entry_size=64
eventq_index=0
indexing_policy=system.cpu.dcache.tags.indexing_policy
power_model=
power_state=system.cpu.dcache.tags.power_state
replacement_policy=system.cpu.dcache.replacement_policy
sequential_access=false
size=65536
system=system
tag_latency=2
warmup_percentage=0

[system.cpu.dcache.tags.indexing_policy]
type=SetAssociative
assoc=2
entry_size=64
eventq_index=0
size=65536

[system.cpu.dcache.tags.power_state]
type=PowerState
clk_gate_bins=20
clk_gate_max=1000000000000
clk_gate_min=1000
default_state=UNDEFINED
eventq_index=0
leaders=
possible_states=

[system.cpu.decoder]
type=ArmDecoder
dvm_enabled=false
eventq_index=0
isa=system.cpu.isa

[system.cpu.icache]
type=Cache
children=power_state replacement_policy tags
addr_ranges=0:18446744073709551615
assoc=2
clk_domain=system.cpu_clk_domain
clusivity=mostly_incl
compressor=Null
data_latency=2
demand_mshr_reserve=1
eventq_index=0
is_read_only=true
max_miss_count=0
move_contractions=true
mshrs=4
power_model=
power_state=system.cpu.icache.power_state
prefetch_on_access=false
prefetch_on_pf_hit=false
prefetcher=Null
replace_expansions=true
replacement_policy=system.cpu.icache.replacement_policy
response_latency=2
sequential_access=false
size=32768
system=system
tag_latency=2
tags=system.cpu.icache.tags
tgts_per_mshr=20
warmup_percentage=0
write_allocator=Null
write_buffers=8
writeback_clean=true
cpu_side=system.cpu.icache_port
mem_side=system.membus.cpu_side_ports[3]

[system.cpu.icache.power_state]
type=PowerState
clk_gate_bins=20
clk_gate_max=1000000000000
clk_gate_min=1000
default_state=UNDEFINED
eventq_index=0
leaders=
possible_states=

[system.cpu.icache.replacement_policy]
type=LRURP
eventq_index=0

[system.cpu.icache.tags]
type=BaseSetAssoc
children=indexing_policy power_state
assoc=2
block_size=64
clk_domain=system.cpu_clk_domain
entry_size=64
eventq_index=0
indexing_policy=system.cpu.icache.tags.indexing_policy
power_model=
power_state=system.cpu.icache.tags.power_state
replacement_policy=system.cpu.icache.replacement_policy
sequential_access=false
size=32768
system=system
tag_latency=2
warmup_percentage=0

[system.cpu.icache.tags.indexing_policy]
type=SetAssociative
assoc=2
entry_size=64
eventq_index=0
size=32768

[system.cpu.icache.tags.power_state]
type=PowerState
clk_gate_bins=20
clk_gate_max=1000000000000
clk_gate_min=1000
default_state=UNDEFINED
eventq_index=0
leaders=
possible_states=

[system.cpu.interrupts]
type=ArmInterrupts
eventq_index=0

[system.cpu.isa]
type=ArmISA
children=release_se
decoderFlavor=Generic
eventq_index=0
fpsid=1090793632
id_aa64afr0_el1=0
id_aa64afr1_el1=0
id_aa64dfr0_el1=15790086
id_aa64dfr1_el1=0
id_aa64isar0_el1=268435456
id_aa64isar1_el1=16846864
id_aa64mmfr0_el1=15728642
id_aa64mmfr1_el1=1052704
id_aa64mmfr2_el1=65552
id_isar0=34607377
id_isar1=34677009
id_isar2=555950401
id_isar3=17899825
id_isar4=268501314
id_isar5=285212672
id_isar6=1
id_mmfr0=270536963
id_mmfr1=0
id_mmfr2=19070976
id_mmfr3=34611729
id_mmfr4=0
impdef_nop=false
midr=0
pmu=Null
release_se=system.cpu.isa.release_se
sme_vl_se=1
sve_vl_se=1
system=system

[system.cpu.isa.release_se]
type=ArmRelease
eventq_index=0
extensions=CRYPTO FEAT_LSE FEAT_RDM FEAT_F32MM FEAT_F64MM FEAT_SVE FEAT_I8MM FEAT_DOTPROD FEAT_FCMA FEAT_JSCVT FEAT_PAuth FEAT_FLAGM FEAT_FLAGM2 FEAT_SME TME

[system.cpu.mmu]
type=ArmMMU
children=dtb dtb_walker itb itb_walker l2_shared stage2_dtb stage2_dtb_walker stage2_itb stage2_itb_walker
dtb=system.cpu.mmu.dtb
dtb_walker=system.cpu.mmu.dtb_walker
eventq_index=0
itb=system.cpu.mmu.itb
itb_walker=system.cpu.mmu.itb_walker
release_se=system.cpu.isa.release_se
stage2_dtb=system.cpu.mmu.stage2_dtb
stage2_dtb_walker=system.cpu.mmu.stage2_dtb_walker
stage2_itb=system.cpu.mmu.stage2_itb
stage2_itb_walker=system.cpu.mmu.stage2_itb_walker
sys=system

[system.cpu.mmu.dtb]
type=ArmTLB
entry_type=data
eventq_index=0
is_stage2=false
next_level=system.cpu.mmu.l2_shared
partial_levels=
size=64
sys=system

[system.cpu.mmu.dtb_walker]
type=ArmTableWalker
children=power_state
clk_domain=system.cpu_clk_domain
eventq_index=0
is_stage2=false
num_squash_per_cycle=2
power_model=
power_state=system.cpu.mmu.dtb_walker.power_state
sys=system
port=system.membus.cpu_side_ports[6]

[system.cpu.mmu.dtb_walker.power_state]
type=PowerState
clk_gate_bins=20
clk_gate_max=1000000000000
clk_gate_min=1000
default_state=UNDEFINED
eventq_index=0
leaders=
possible_states=

[system.cpu.mmu.itb]
type=ArmTLB
entry_type=instruction
eventq_index=0
is_stage2=false
next_level=system.cpu.mmu.l2_shared
partial_levels=
size=64
sys=system

[system.cpu.mmu.itb_walker]
type=ArmTableWalker
children=power_state
clk_domain=system.cpu_clk_domain
eventq_index=0
is_stage2=false
num_squash_per_cycle=2
power_model=
power_state=system.cpu.mmu.itb_walker.power_state
sys=system
port=system.membus.cpu_side_ports[5]

[system.cpu.mmu.itb_walker.power_state]
type=PowerState
clk_gate_bins=20
clk_gate_max=1000000000000
clk_gate_min=1000
default_state=UNDEFINED
eventq_index=0
leaders=
possible_states=

[system.cpu.mmu.l2_shared]
type=ArmTLB
entry_type=unified
eventq_index=0
is_stage2=false
next_level=Null
partial_levels=L2
size=1280
sys=system

[system.cpu.mmu.stage2_dtb]
type=ArmTLB
entry_type=data
eventq_index=0
is_stage2=true
next_level=Null
partial_levels=
size=32
sys=system

[system.cpu.mmu.stage2_dtb_walker]
type=ArmTableWalker
children=power_state
clk_domain=system.cpu_clk_domain
eventq_index=0
is_stage2=true
num_squash_per_cycle=2
power_model=
power_state=system.cpu.mmu.stage2_dtb_walker.power_state
sys=system
port=system.membus.cpu_side_ports[8]

[system.cpu.mmu.stage2_dtb_walker.power_state]
type=PowerState
clk_gate_bins=20
clk_gate_max=1000000000000
clk_gate_min=1000
default_state=UNDEFINED
eventq_index=0
leaders=
possible_states=

[system.cpu.mmu.stage2_itb]
type=ArmTLB
entry_type=instruction
eventq_index=0
is_stage2=true
next_level=Null
partial_levels=
size=32
sys=system

[system.cpu.mmu.stage2_itb_walker]
type=ArmTableWalker
children=power_state
clk_domain=system.cpu_clk_domain
eventq_index=0
is_stage2=true
num_squash_per_cycle=2
power_model=
power_state=system.cpu.mmu.stage2_itb_walker.power_state
sys=system
port=system.membus.cpu_side_ports[7]

[system.cpu.mmu.stage2_itb_walker.power_state]
type=PowerState
clk_gate_bins=20
clk_gate_max=1000000000000
clk_gate_min=1000
default_state=UNDEFINED
eventq_index=0
leaders=
possible_states=

[system.cpu.power_state]
type=PowerState
clk_gate_bins=20
clk_gate_max=1000000000000
clk_gate_min=1000
default_state=UNDEFINED
eventq_index=0
leaders=
possible_states=ON CLK_GATED OFF

[system.cpu.tracer]
type=ExeTracer
eventq_index=0

[system.cpu_clk_domain]
type=SrcClockDomain
clock=1000
domain_id=-1
eventq_index=0
init_perf_level=0
voltage_domain=system.cpu_voltage_domain

[system.cpu_voltage_domain]
type=VoltageDomain
eventq_index=0
voltage=1.0

[system.dvfs_handler]
type=DVFSHandler
domains=
enable=false
eventq_index=0
sys_clk_domain=system.clk_domain
transition_latency=100000000

[system.iobus]
type=NoncoherentXBar
children=power_state
clk_domain=system.clk_domain
eventq_index=0
forward_latency=1
frontend_latency=2
header_latency=1
power_model=
power_state=system.iobus.power_state
response_latency=2
use_default_range=false
width=16
cpu_side_ports=system.bridge.mem_side_port system.pci_ide.dma
mem_side_ports=system.realview.flash1.port system.realview.vram.port system.realview.realview_io.pio system.realview.kmi0.pio system.realview.kmi1.pio system.realview.watchdog.pio system.realview.rtc.pio system.realview.pci_host.pio system.realview.energy_ctrl.pio system.realview.pwr_ctrl.pio system.realview.vio0.pio system.realview.vio1.pio system.realview.uart0.pio system.realview.uart1.pio system.realview.uart2.pio system.realview.uart3.pio system.pci_ide.pio system.iocache.cpu_side

[system.iobus.power_state]
type=PowerState
clk_gate_bins=20
clk_gate_max=1000000000000
clk_gate_min=1000
default_state=UNDEFINED
eventq_index=0
leaders=
possible_states=

[system.iocache]
type=Cache
children=power_state replacement_policy tags
addr_ranges=2147483648:2684354560
assoc=8
clk_domain=system.clk_domain
clusivity=mostly_incl
compressor=Null
data_latency=50
demand_mshr_reserve=1
eventq_index=0
is_read_only=false
max_miss_count=0
move_contractions=true
mshrs=20
power_model=
power_state=system.iocache.power_state
prefetch_on_access=false
prefetch_on_pf_hit=false
prefetcher=Null
replace_expansions=true
replacement_policy=system.iocache.replacement_policy
response_latency=50
sequential_access=false
size=1024
system=system
tag_latency=50
tags=system.iocache.tags
tgts_per_mshr=12
warmup_percentage=0
write_allocator=Null
write_buffers=8
writeback_clean=false
cpu_side=system.iobus.mem_side_ports[17]
mem_side=system.membus.cpu_side_ports[2]

[system.iocache.power_state]
type=PowerState
clk_gate_bins=20
clk_gate_max=1000000000000
clk_gate_min=1000
default_state=UNDEFINED
eventq_index=0
leaders=
possible_states=

[system.iocache.replacement_policy]
type=LRURP
eventq_index=0

[system.iocache.tags]
type=BaseSetAssoc
children=indexing_policy power_state
assoc=8
block_size=64
clk_domain=system.clk_domain
entry_size=64
eventq_index=0
indexing_policy=system.iocache.tags.indexing_policy
power_model=
power_state=system.iocache.tags.power_state
replacement_policy=system.iocache.replacement_policy
sequential_access=false
size=1024
system=system
tag_latency=50
warmup_percentage=0

[system.iocache.tags.indexing_policy]
type=SetAssociative
assoc=8
entry_size=64
eventq_index=0
size=1024

[system.iocache.tags.power_state]
type=PowerState
clk_gate_bins=20
clk_gate_max=1000000000000
clk_gate_min=1000
default_state=UNDEFINED
eventq_index=0
leaders=
possible_states=

[system.mem_ctrls]
type=MemCtrl
children=dram power_state
clk_domain=system.clk_domain
command_window=10000
disable_sanity_check=false
dram=system.mem_ctrls.dram
eventq_index=0
mem_sched_policy=frfcfs
min_reads_per_switch=16
min_writes_per_switch=16
power_model=
power_state=system.mem_ctrls.power_state
qos_policy=Null
qos_priorities=1
qos_priority_escalation=false
qos_q_policy=fifo
qos_requestors=               
qos_syncro_scheduler=false
qos_turnaround_policy=Null
static_backend_latency=10000
static_frontend_latency=10000
system=system
write_high_thresh_perc=85
write_low_thresh_perc=50
port=system.membus.mem_side_ports[16]

[system.mem_ctrls.dram]
type=DRAMInterface
children=power_state
IDD0=0.08
IDD02=0.004
IDD2N=0.034
IDD2N2=0.0
IDD2P0=0.0
IDD2P02=0.0
IDD2P1=0.025
IDD2P12=0.0
IDD3N=0.047
IDD3N2=0.003
IDD3P0=0.0
IDD3P02=0.0
IDD3P1=0.041
IDD3P12=0.0
IDD4R=0.243
IDD4R2=0.0
IDD4W=0.228
IDD4W2=0.0
IDD5=0.28
IDD52=0.0
IDD6=0.03
IDD62=0.0
VDD=1.2
VDD2=2.5
activation_limit=4
addr_mapping=RoRaBaCoCh
bank_groups_per_rank=2
banks_per_rank=8
beats_per_clock=2
burst_length=8
clk_domain=system.clk_domain
conf_table_reported=true
data_clock_sync=false
device_bus_width=16
device_rowbuffer_size=2048
device_size=1073741824
devices_per_rank=4
dll=true
enable_dram_powerdown=false
eventq_index=0
image_file=
in_addr_map=true
kvm_map=true
max_accesses_per_row=16
null=false
page_policy=open_adaptive
power_model=
power_state=system.mem_ctrls.dram.power_state
range=2147483648:2684354560
ranks_per_channel=1
read_buffer_size=64
tAAD=833
tBURST=3332
tBURST_MAX=3332
tBURST_MIN=3332
tCCD_L=5000
tCCD_L_WR=5000
tCK=833
tCL=14160
tCS=1666
tCWL=14160
tPPD=0
tRAS=32000
tRCD=14160
tRCD_WR=14160
tREFI=7800000
tRFC=350000
tRP=14160
tRRD=5300
tRRD_L=6400
tRTP=7500
tRTW=1666
tWR=15000
tWTR=5000
tWTR_L=5000
tXAW=30000
tXP=6000
tXPDLL=0
tXS=340000
tXSDLL=0
two_cycle_activate=false
write_buffer_size=128
writeable=true

[system.mem_ctrls.dram.power_state]
type=PowerState
clk_gate_bins=20
clk_gate_max=1000000000000
clk_gate_min=1000
default_state=UNDEFINED
eventq_index=0
leaders=
possible_states=

[system.mem_ctrls.power_state]
type=PowerState
clk_gate_bins=20
clk_gate_max=1000000000000
clk_gate_min=1000
default_state=UNDEFINED
eventq_index=0
leaders=
possible_states=

[system.membus]
type=CoherentXBar
children=badaddr_responder power_state snoop_filter
clk_domain=system.clk_domain
eventq_index=0
forward_latency=4
frontend_latency=3
header_latency=1
max_outstanding_snoops=512
max_routing_table_size=512
point_of_coherency=true
point_of_unification=true
power_model=
power_state=system.membus.power_state
response_latency=2
snoop_filter=system.membus.snoop_filter
snoop_response_latency=4
system=system
use_default_range=false
width=16
cpu_side_ports=system.RootComplex.request_dma system.system_port system.iocache.mem_side system.cpu.icache.mem_side system.cpu.dcache.mem_side system.cpu.mmu.itb_walker.port system.cpu.mmu.dtb_walker.port system.cpu.mmu.stage2_itb_walker.port system.cpu.mmu.stage2_dtb_walker.port
default=system.membus.badaddr_responder.pio
mem_side_ports=system.bridge.cpu_side_port system.RootComplex.response system.realview.bootmem.port system.realview.trusted_sram.port system.realview.trusted_dram.port system.realview.non_trusted_sram.port system.realview.flash0.port system.realview.generic_timer_mem.pio system.realview.el2_watchdog.pio system.realview.trusted_watchdog.pio system.realview.system_watchdog.pio system.realview.generic_timer_mem.frames0.pio system.realview.generic_timer_mem.frames1.pio system.realview.gic.pio system.realview.vgic.pio system.realview.gicv2m.pio system.mem_ctrls.port

[system.membus.badaddr_responder]
type=IsaFake
children=power_state
clk_domain=system.clk_domain
eventq_index=0
fake_mem=false
pio_addr=0
pio_latency=100000
pio_size=8
power_model=
power_state=system.membus.badaddr_responder.power_state
ret_bad_addr=true
ret_data16=65535
ret_data32=4294967295
ret_data64=18446744073709551615
ret_data8=255
system=system
update_data=false
warn_access=warn
pio=system.membus.default

[system.membus.badaddr_responder.power_state]
type=PowerState
clk_gate_bins=20
clk_gate_max=1000000000000
clk_gate_min=1000
default_state=UNDEFINED
eventq_index=0
leaders=
possible_states=

[system.membus.power_state]
type=PowerState
clk_gate_bins=20
clk_gate_max=1000000000000
clk_gate_min=1000
default_state=UNDEFINED
eventq_index=0
leaders=
possible_states=

[system.membus.snoop_filter]
type=SnoopFilter
eventq_index=0
lookup_latency=1
max_capacity=8388608
system=system

[system.pci_ide]
type=IdeController
children=BAR0 BAR1 BAR2 BAR3 BAR4 BAR5 disks power_state
BAR0=system.pci_ide.BAR0
BAR1=system.pci_ide.BAR1
BAR2=system.pci_ide.BAR2
BAR3=system.pci_ide.BAR3
BAR4=system.pci_ide.BAR4
BAR5=system.pci_ide.BAR5
BIST=0
CacheLineSize=0
CapabilityPtr=0
CardbusCIS=0
ClassCode=1
Command=0
DeviceID=28945
ExpansionROM=0
HeaderType=0
InterruptLine=31
InterruptPin=1
LatencyTimer=0
MSICAPBaseOffset=0
MSICAPCapId=0
MSICAPMaskBits=0
MSICAPMsgAddr=0
MSICAPMsgCtrl=0
MSICAPMsgData=0
MSICAPMsgUpperAddr=0
MSICAPNextCapability=0
MSICAPPendingBits=0
MSIXCAPBaseOffset=0
MSIXCAPCapId=0
MSIXCAPNextCapability=0
MSIXMsgCtrl=0
MSIXPbaOffset=0
MSIXTableOffset=0
MaximumLatency=0
MinimumGrant=0
PMCAPBaseOffset=0
PMCAPCapId=0
PMCAPCapabilities=0
PMCAPCtrlStatus=0
PMCAPNextCapability=0
PXCAPBaseOffset=0
PXCAPCapId=0
PXCAPCapabilities=0
PXCAPDevCap2=0
PXCAPDevCapabilities=0
PXCAPDevCtrl=0
PXCAPDevCtrl2=0
PXCAPDevStatus=0
PXCAPLinkCap=0
PXCAPLinkCtrl=0
PXCAPLinkStatus=0
PXCAPNextCapability=0
ProgIF=133
Revision=0
Status=640
SubClassCode=1
SubsystemID=0
SubsystemVendorID=0
VendorID=32902
clk_domain=system.clk_domain
config_latency=20000
ctrl_offset=0
disks=system.pci_ide.disks
eventq_index=0
host=system.realview.pci_host
io_shift=0
pci_bus=0
pci_dev=1
pci_func=0
pio_latency=30000
power_model=
power_state=system.pci_ide.power_state
sid=0
ssid=0
system=system
dma=system.iobus.cpu_side_ports[1]
pio=system.iobus.mem_side_ports[16]

[system.pci_ide.BAR0]
type=PciIoBar
eventq_index=0
size=8

[system.pci_ide.BAR1]
type=PciIoBar
eventq_index=0
size=4

[system.pci_ide.BAR2]
type=PciIoBar
eventq_index=0
size=8

[system.pci_ide.BAR3]
type=PciIoBar
eventq_index=0
size=4

[system.pci_ide.BAR4]
type=PciIoBar
eventq_index=0
size=16

[system.pci_ide.BAR5]
type=PciBarNone
eventq_index=0

[system.pci_ide.disks]
type=IdeDisk
children=image
delay=1000000
driveID=device0
eventq_index=0
image=system.pci_ide.disks.image

[system.pci_ide.disks.image]
type=CowDiskImage
children=child
child=system.pci_ide.disks.image.child
eventq_index=0
image_file=
read_only=false
table_size=65536

[system.pci_ide.disks.image.child]
type=RawDiskImage
eventq_index=0
image_file=full-system-image/disks/m5_exit.squashfs.arm
read_only=true

[system.pci_ide.power_state]
type=PowerState
clk_gate_bins=20
clk_gate_max=1000000000000
clk_gate_min=1000
default_state=UNDEFINED
eventq_index=0
leaders=
possible_states=

[system.pcie1]
type=PCIELink
delay=0
delay_var=0
eventq_index=0
lanes=2
max_queue_size=10
mps=5
speed=5.0
downstreamRequest=system.switch.response
downstreamResponse=system.switch.request_dma
upstreamRequest=system.RootComplex.response_dma1
upstreamResponse=system.RootComplex.request1

[system.pcie2]
type=PCIELink
delay=0
delay_var=0
eventq_index=0
lanes=2
max_queue_size=10
mps=5
speed=5.0
upstreamRequest=system.RootComplex.response_dma2
upstreamResponse=system.RootComplex.request2

[system.pcie3]
type=PCIELink
delay=0
delay_var=0
eventq_index=0
lanes=2
max_queue_size=10
mps=5
speed=5.0
downstreamRequest=system.realview.cxlmemdevice1.pio
downstreamResponse=system.realview.cxlmemdevice1.dma
upstreamRequest=system.RootComplex.response_dma3
upstreamResponse=system.RootComplex.request3

[system.pcie4]
type=PCIELink
delay=0
delay_var=0
eventq_index=0
lanes=2
max_queue_size=10
mps=5
speed=5.0
downstreamRequest=system.realview.cxlmemdevice2.pio
downstreamResponse=system.realview.cxlmemdevice2.dma
upstreamRequest=system.switch.response_dma1
upstreamResponse=system.switch.request1

[system.pcie5]
type=PCIELink
delay=0
delay_var=0
eventq_index=0
lanes=2
max_queue_size=10
mps=5
speed=5.0
upstreamRequest=system.switch.response_dma2
upstreamResponse=system.switch.request2

[system.pcie6]
type=PCIELink
delay=0
delay_var=0
eventq_index=0
lanes=2
max_queue_size=10
mps=5
speed=5.0
upstreamRequest=system.switch.response_dma3
upstreamResponse=system.switch.request3

[system.realview]
type=RealView
children=bootmem clock24MHz clock32KHz cxlmemdevice1 cxlmemdevice2 dcc el2_watchdog energy_ctrl flash0 flash1 generic_timer generic_timer_mem gic gicv2m io_voltage kmi0 kmi1 mcc non_trusted_sram pci_host pwr_ctrl realview_io rtc sys_counter system_watchdog trusted_dram trusted_sram trusted_watchdog uart0 uart1 uart2 uart3 vgic vio0 vio1 vram watchdog
eventq_index=0
system=system

[system.realview.bootmem]
type=SimpleMemory
children=power_state
bandwidth=73.000000
clk_domain=system.clk_domain
conf_table_reported=false
eventq_index=0
image_file=
in_addr_map=true
kvm_map=true
latency=30000
latency_var=0
null=false
power_model=
power_state=system.realview.bootmem.power_state
range=0:67108864
writeable=true
port=system.membus.mem_side_ports[2]

[system.realview.bootmem.power_state]
type=PowerState
clk_gate_bins=20
clk_gate_max=1000000000000
clk_gate_min=1000
default_state=UNDEFINED
eventq_index=0
leaders=
possible_states=

[system.realview.clock24MHz]
type=SrcClockDomain
clock=41667
domain_id=-1
eventq_index=0
init_perf_level=0
voltage_domain=system.realview.io_voltage

[system.realview.clock32KHz]
type=SrcClockDomain
clock=31250000
domain_id=-1
eventq_index=0
init_perf_level=0
voltage_domain=system.realview.io_voltage

[system.realview.cxlmemdevice1]
type=CxlMemory
children=BAR0 BAR1 BAR2 BAR3 BAR4 BAR5 power_state
BAR0=system.realview.cxlmemdevice1.BAR0
BAR1=system.realview.cxlmemdevice1.BAR1
BAR2=system.realview.cxlmemdevice1.BAR2
BAR3=system.realview.cxlmemdevice1.BAR3
BAR4=system.realview.cxlmemdevice1.BAR4
BAR5=system.realview.cxlmemdevice1.BAR5
BIST=0
CacheLineSize=0
CapabilityPtr=0
CardbusCIS=0
ClassCode=1
Command=0
DeviceID=30864
ExpansionROM=0
HeaderType=0
InterruptLine=2
InterruptPin=1
LatencyTimer=0
MSICAPBaseOffset=0
MSICAPCapId=0
MSICAPMaskBits=0
MSICAPMsgAddr=0
MSICAPMsgCtrl=0
MSICAPMsgData=0
MSICAPMsgUpperAddr=0
MSICAPNextCapability=0
MSICAPPendingBits=0
MSIXCAPBaseOffset=0
MSIXCAPCapId=0
MSIXCAPNextCapability=0
MSIXMsgCtrl=0
MSIXPbaOffset=0
MSIXTableOffset=0
MaximumLatency=0
MinimumGrant=0
PMCAPBaseOffset=0
PMCAPCapId=0
PMCAPCapabilities=0
PMCAPCtrlStatus=0
PMCAPNextCapability=0
PXCAPBaseOffset=0
PXCAPCapId=0
PXCAPCapabilities=0
PXCAPDevCap2=0
PXCAPDevCapabilities=0
PXCAPDevCtrl=0
PXCAPDevCtrl2=0
PXCAPDevStatus=0
PXCAPLinkCap=0
PXCAPLinkCtrl=0
PXCAPLinkStatus=0
PXCAPNextCapability=0
ProgIF=133
Revision=0
Status=640
SubClassCode=1
SubsystemID=0
SubsystemVendorID=0
VendorID=32902
clk_domain=system.clk_domain
config_latency=20000
cxl_mem_latency=2000
eventq_index=0
host=system.realview.pci_host
latency=50000
pci_bus=3
pci_dev=0
pci_func=0
pio_latency=30000
power_model=
power_state=system.realview.cxlmemdevice1.power_state
sid=0
ssid=0
system=system
dma=system.pcie3.downstreamResponse
pio=system.pcie3.downstreamRequest

[system.realview.cxlmemdevice1.BAR0]
type=PciMemBar
eventq_index=0
size=4294967296

[system.realview.cxlmemdevice1.BAR1]
type=PciMemUpperBar
eventq_index=0

[system.realview.cxlmemdevice1.BAR2]
type=PciBarNone
eventq_index=0

[system.realview.cxlmemdevice1.BAR3]
type=PciBarNone
eventq_index=0

[system.realview.cxlmemdevice1.BAR4]
type=PciBarNone
eventq_index=0

[system.realview.cxlmemdevice1.BAR5]
type=PciBarNone
eventq_index=0

[system.realview.cxlmemdevice1.power_state]
type=PowerState
clk_gate_bins=20
clk_gate_max=1000000000000
clk_gate_min=1000
default_state=UNDEFINED
eventq_index=0
leaders=
possible_states=

[system.realview.cxlmemdevice2]
type=CxlMemory
children=BAR0 BAR1 BAR2 BAR3 BAR4 BAR5 power_state
BAR0=system.realview.cxlmemdevice2.BAR0
BAR1=system.realview.cxlmemdevice2.BAR1
BAR2=system.realview.cxlmemdevice2.BAR2
BAR3=system.realview.cxlmemdevice2.BAR3
BAR4=system.realview.cxlmemdevice2.BAR4
BAR5=system.realview.cxlmemdevice2.BAR5
BIST=0
CacheLineSize=0
CapabilityPtr=0
CardbusCIS=0
ClassCode=1
Command=0
DeviceID=30864
ExpansionROM=0
HeaderType=0
InterruptLine=2
InterruptPin=1
LatencyTimer=0
MSICAPBaseOffset=0
MSICAPCapId=0
MSICAPMaskBits=0
MSICAPMsgAddr=0
MSICAPMsgCtrl=0
MSICAPMsgData=0
MSICAPMsgUpperAddr=0
MSICAPNextCapability=0
MSICAPPendingBits=0
MSIXCAPBaseOffset=0
MSIXCAPCapId=0
MSIXCAPNextCapability=0
MSIXMsgCtrl=0
MSIXPbaOffset=0
MSIXTableOffset=0
MaximumLatency=0
MinimumGrant=0
PMCAPBaseOffset=0
PMCAPCapId=0
PMCAPCapabilities=0
PMCAPCtrlStatus=0
PMCAPNextCapability=0
PXCAPBaseOffset=0
PXCAPCapId=0
PXCAPCapabilities=0
PXCAPDevCap2=0
PXCAPDevCapabilities=0
PXCAPDevCtrl=0
PXCAPDevCtrl2=0
PXCAPDevStatus=0
PXCAPLinkCap=0
PXCAPLinkCtrl=0
PXCAPLinkStatus=0
PXCAPNextCapability=0
ProgIF=133
Revision=0
Status=640
SubClassCode=1
SubsystemID=0
SubsystemVendorID=0
VendorID=32902
clk_domain=system.clk_domain
config_latency=20000
cxl_mem_latency=2000
eventq_index=0
host=system.realview.pci_host
latency=50000
pci_bus=4
pci_dev=0
pci_func=0
pio_latency=30000
power_model=
power_state=system.realview.cxlmemdevice2.power_state
sid=0
ssid=0
system=system
dma=system.pcie4.downstreamResponse
pio=system.pcie4.downstreamRequest

[system.realview.cxlmemdevice2.BAR0]
type=PciMemBar
eventq_index=0
size=4294967296

[system.realview.cxlmemdevice2.BAR1]
type=PciMemUpperBar
eventq_index=0

[system.realview.cxlmemdevice2.BAR2]
type=PciBarNone
eventq_index=0

[system.realview.cxlmemdevice2.BAR3]
type=PciBarNone
eventq_index=0

[system.realview.cxlmemdevice2.BAR4]
type=PciBarNone
eventq_index=0

[system.realview.cxlmemdevice2.BAR5]
type=PciBarNone
eventq_index=0

[system.realview.cxlmemdevice2.power_state]
type=PowerState
clk_gate_bins=20
clk_gate_max=1000000000000
clk_gate_min=1000
default_state=UNDEFINED
eventq_index=0
leaders=
possible_states=

[system.realview.dcc]
type=SubSystem
children=osc_cpu osc_ddr osc_hsbm osc_pxl osc_smb osc_sys
eventq_index=0
thermal_domain=Null

[system.realview.dcc.osc_cpu]
type=RealViewOsc
dcc=0
device=0
eventq_index=0
freq=16667
max_freq=16667
min_freq=50000
parent=system.realview.realview_io
position=0
site=1
voltage_domain=system.voltage_domain

[system.realview.dcc.osc_ddr]
type=RealViewOsc
dcc=0
device=8
eventq_index=0
freq=25000
max_freq=0
min_freq=0
parent=system.realview.realview_io
position=0
site=1
voltage_domain=system.voltage_domain

[system.realview.dcc.osc_hsbm]
type=RealViewOsc
dcc=0
device=4
eventq_index=0
freq=25000
max_freq=25000
min_freq=50000
parent=system.realview.realview_io
position=0
site=1
voltage_domain=system.voltage_domain
